GALANGIN
     RDKit          3D

 30 32  0  0  0  0  0  0  0  0999 V2000
    1.7307   -2.1259   -1.9919 O   0  0  0  0  0  0  0  0  0  0  0  0
    1.2493   -1.2439   -1.2338 C   0  0  0  0  0  0  0  0  0  0  0  0
   -0.1394   -1.2165   -1.0283 C   0  0  0  0  0  0  0  0  0  0  0  0
   -0.9751   -2.1358   -1.6684 O   0  0  0  0  0  0  0  0  0  0  0  0
   -0.6780   -0.2731   -0.1362 C   0  0  0  0  0  0  0  0  0  0  0  0
   -2.1337   -0.1662    0.1136 C   0  0  0  0  0  0  0  0  0  0  0  0
   -2.5972    0.0491    1.4230 C   0  0  0  0  0  0  0  0  0  0  0  0
   -3.9664    0.1755    1.6771 C   0  0  0  0  0  0  0  0  0  0  0  0
   -4.8837    0.1029    0.6261 C   0  0  0  0  0  0  0  0  0  0  0  0
   -4.4328   -0.0889   -0.6821 C   0  0  0  0  0  0  0  0  0  0  0  0
   -3.0645   -0.2168   -0.9412 C   0  0  0  0  0  0  0  0  0  0  0  0
    0.1334    0.5381    0.5322 O   0  0  0  0  0  0  0  0  0  0  0  0
    1.4515    0.5484    0.3739 C   0  0  0  0  0  0  0  0  0  0  0  0
    2.2101    1.4286    1.1495 C   0  0  0  0  0  0  0  0  0  0  0  0
    3.5995    1.4641    1.0230 C   0  0  0  0  0  0  0  0  0  0  0  0
    4.3623    2.3255    1.8086 O   0  0  0  0  0  0  0  0  0  0  0  0
    4.2318    0.6372    0.0957 C   0  0  0  0  0  0  0  0  0  0  0  0
    3.4952   -0.2293   -0.7215 C   0  0  0  0  0  0  0  0  0  0  0  0
    4.2161   -0.9441   -1.6826 O   0  0  0  0  0  0  0  0  0  0  0  0
    2.0800   -0.3180   -0.5579 C   0  0  0  0  0  0  0  0  0  0  0  0
   -0.6234   -2.8348   -2.3116 H   0  0  0  0  0  0  0  0  0  0  0  0
   -1.8998    0.1076    2.2498 H   0  0  0  0  0  0  0  0  0  0  0  0
   -4.3161    0.3316    2.6895 H   0  0  0  0  0  0  0  0  0  0  0  0
   -5.9430    0.2031    0.8243 H   0  0  0  0  0  0  0  0  0  0  0  0
   -5.1433   -0.1297   -1.4975 H   0  0  0  0  0  0  0  0  0  0  0  0
   -2.7354   -0.3295   -1.9661 H   0  0  0  0  0  0  0  0  0  0  0  0
    1.7164    2.0787    1.8614 H   0  0  0  0  0  0  0  0  0  0  0  0
    3.9336    2.9414    2.4896 H   0  0  0  0  0  0  0  0  0  0  0  0
    5.3081    0.6896   -0.0141 H   0  0  0  0  0  0  0  0  0  0  0  0
    3.8138   -1.3690   -2.5042 H   0  0  0  0  0  0  0  0  0  0  0  0
  1  2  2  0
  2  3  1  0
  3  4  1  0
  3  5  2  0
  5  6  1  0
  6  7  2  0
  7  8  1  0
  8  9  2  0
  9 10  1  0
 10 11  2  0
  5 12  1  0
 12 13  1  0
 13 14  2  0
 14 15  1  0
 15 16  1  0
 15 17  2  0
 17 18  1  0
 18 19  1  0
 18 20  2  0
 20  2  1  0
 11  6  1  0
 20 13  1  0
  4 21  1  0
  7 22  1  0
  8 23  1  0
  9 24  1  0
 10 25  1  0
 11 26  1  0
 14 27  1  0
 16 28  1  0
 17 29  1  0
 19 30  1  0
M  END
>  <target>  (1) 
CYP1B1

>  <pchembl>  (1) 
7.6

$$$$
