CHEMBL3132924
     RDKit          3D

 38 39  0  0  0  0  0  0  0  0999 V2000
   -4.2944    2.2222   -2.3616 C   0  0  0  0  0  0  0  0  0  0  0  0
   -3.4010    1.4938   -1.5257 O   0  0  0  0  0  0  0  0  0  0  0  0
   -3.7968    0.5387   -0.5733 C   0  0  0  0  0  0  0  0  0  0  0  0
   -5.1542    0.2147   -0.3736 C   0  0  0  0  0  0  0  0  0  0  0  0
   -5.5220   -0.7398    0.5756 C   0  0  0  0  0  0  0  0  0  0  0  0
   -4.5471   -1.3764    1.3411 C   0  0  0  0  0  0  0  0  0  0  0  0
   -3.1986   -1.0665    1.1574 C   0  0  0  0  0  0  0  0  0  0  0  0
   -2.8064   -0.1166    0.1921 C   0  0  0  0  0  0  0  0  0  0  0  0
   -1.3776    0.2395   -0.0037 C   0  0  0  0  0  0  0  0  0  0  0  0
   -0.3697   -0.6199    0.2146 C   0  0  0  0  0  0  0  0  0  0  0  0
    1.0614   -0.2761    0.0231 C   0  0  0  0  0  0  0  0  0  0  0  0
    1.4827    0.7524   -0.8389 C   0  0  0  0  0  0  0  0  0  0  0  0
    2.8412    1.0321   -0.9962 C   0  0  0  0  0  0  0  0  0  0  0  0
    3.8097    0.2838   -0.3031 C   0  0  0  0  0  0  0  0  0  0  0  0
    5.1840    0.5389   -0.4352 O   0  0  0  0  0  0  0  0  0  0  0  0
    5.7396    1.5582   -1.2598 C   0  0  0  0  0  0  0  0  0  0  0  0
    3.4030   -0.7553    0.5466 C   0  0  0  0  0  0  0  0  0  0  0  0
    4.3923   -1.4895    1.2205 O   0  0  0  0  0  0  0  0  0  0  0  0
    4.1310   -2.5686    2.1121 C   0  0  0  0  0  0  0  0  0  0  0  0
    2.0304   -1.0332    0.7002 C   0  0  0  0  0  0  0  0  0  0  0  0
   -4.8682    1.5242   -3.0071 H   0  0  0  0  0  0  0  0  0  0  0  0
   -3.7080    2.9044   -3.0105 H   0  0  0  0  0  0  0  0  0  0  0  0
   -4.9876    2.8296   -1.7422 H   0  0  0  0  0  0  0  0  0  0  0  0
   -5.9340    0.6952   -0.9481 H   0  0  0  0  0  0  0  0  0  0  0  0
   -6.5668   -0.9815    0.7225 H   0  0  0  0  0  0  0  0  0  0  0  0
   -4.8373   -2.1064    2.0858 H   0  0  0  0  0  0  0  0  0  0  0  0
   -2.4708   -1.5533    1.7924 H   0  0  0  0  0  0  0  0  0  0  0  0
   -1.1621    1.2393   -0.3535 H   0  0  0  0  0  0  0  0  0  0  0  0
   -0.5902   -1.6197    0.5654 H   0  0  0  0  0  0  0  0  0  0  0  0
    0.7736    1.3293   -1.4159 H   0  0  0  0  0  0  0  0  0  0  0  0
    3.1288    1.8300   -1.6672 H   0  0  0  0  0  0  0  0  0  0  0  0
    5.3773    2.5552   -0.9311 H   0  0  0  0  0  0  0  0  0  0  0  0
    5.4658    1.3821   -2.3215 H   0  0  0  0  0  0  0  0  0  0  0  0
    6.8449    1.5348   -1.1697 H   0  0  0  0  0  0  0  0  0  0  0  0
    3.5222   -2.2155    2.9711 H   0  0  0  0  0  0  0  0  0  0  0  0
    3.6025   -3.3862    1.5778 H   0  0  0  0  0  0  0  0  0  0  0  0
    5.0942   -2.9612    2.4975 H   0  0  0  0  0  0  0  0  0  0  0  0
    1.7082   -1.8328    1.3543 H   0  0  0  0  0  0  0  0  0  0  0  0
  1  2  1  0
  2  3  1  0
  3  4  2  0
  4  5  1  0
  5  6  2  0
  6  7  1  0
  7  8  2  0
  8  9  1  0
  9 10  2  0
 10 11  1  0
 11 12  1  0
 12 13  2  0
 13 14  1  0
 14 15  1  0
 15 16  1  0
 14 17  2  0
 17 18  1  0
 18 19  1  0
 17 20  1  0
  8  3  1  0
 20 11  2  0
  1 21  1  0
  1 22  1  0
  1 23  1  0
  4 24  1  0
  5 25  1  0
  6 26  1  0
  7 27  1  0
  9 28  1  0
 10 29  1  0
 12 30  1  0
 13 31  1  0
 16 32  1  0
 16 33  1  0
 16 34  1  0
 19 35  1  0
 19 36  1  0
 19 37  1  0
 20 38  1  0
M  END
>  <target>  (1) 
CYP1B1

>  <pchembl>  (1) 
8.4

$$$$
