CHEMBL112449
     RDKit          3D

 55 57  0  0  0  0  0  0  0  0999 V2000
    4.4334   -2.5941   -1.8552 C   0  0  0  0  0  0  0  0  0  0  0  0
    3.1614   -1.8728   -1.4948 C   0  0  0  0  0  0  0  0  0  0  0  0
    1.9254   -2.4221   -1.8714 C   0  0  0  0  0  0  0  0  0  0  0  0
    0.7312   -1.7710   -1.5538 C   0  0  0  0  0  0  0  0  0  0  0  0
    0.7510   -0.5519   -0.8571 C   0  0  0  0  0  0  0  0  0  0  0  0
   -0.4661    0.1242   -0.5006 N   0  0  0  0  0  0  0  0  0  0  0  0
   -1.6261    0.1841   -1.3450 C   0  0  0  0  0  0  0  0  0  0  0  0
   -1.5734   -0.2189   -2.5400 O   0  0  0  0  0  0  0  0  0  0  0  0
   -2.9226    0.7108   -0.8070 C   0  0  0  0  0  0  0  0  0  0  0  0
   -3.7671   -0.4449   -0.2433 C   0  0  0  0  0  0  0  0  0  0  0  0
   -5.1649   -0.0364    0.2809 C   0  0  0  0  0  0  0  0  0  0  0  0
   -5.1038    1.0634    1.3593 C   0  0  0  0  0  0  0  0  0  0  0  0
   -6.4830    1.2782    2.0158 C   0  0  0  0  0  0  0  0  0  0  0  0
   -7.6671    1.0641    1.0469 C   0  0  0  0  0  0  0  0  0  0  0  0
   -7.2649    1.3036   -0.4124 C   0  0  0  0  0  0  0  0  0  0  0  0
   -6.1550    0.3317   -0.8599 C   0  0  0  0  0  0  0  0  0  0  0  0
    1.9802   -0.0189   -0.4443 C   0  0  0  0  0  0  0  0  0  0  0  0
    3.1830   -0.6708   -0.7505 C   0  0  0  0  0  0  0  0  0  0  0  0
    4.4494   -0.0624   -0.2944 C   0  0  0  0  0  0  0  0  0  0  0  0
    5.1265   -0.5003    0.7839 C   0  0  0  0  0  0  0  0  0  0  0  0
    4.6265   -1.6196    1.5557 C   0  0  0  0  0  0  0  0  0  0  0  0
    4.2258   -2.5138    2.1720 N   0  0  0  0  0  0  0  0  0  0  0  0
    6.3926    0.1523    1.2117 C   0  0  0  0  0  0  0  0  0  0  0  0
    6.5754    1.5437    1.1011 C   0  0  0  0  0  0  0  0  0  0  0  0
    7.7671    2.1327    1.5294 C   0  0  0  0  0  0  0  0  0  0  0  0
    8.7718    1.3302    2.0707 C   0  0  0  0  0  0  0  0  0  0  0  0
    8.5858   -0.0118    2.1787 N   0  0  0  0  0  0  0  0  0  0  0  0
    7.4350   -0.6111    1.7701 C   0  0  0  0  0  0  0  0  0  0  0  0
    4.8424   -3.1022   -0.9564 H   0  0  0  0  0  0  0  0  0  0  0  0
    4.2556   -3.3577   -2.6431 H   0  0  0  0  0  0  0  0  0  0  0  0
    5.1859   -1.8758   -2.2456 H   0  0  0  0  0  0  0  0  0  0  0  0
    1.8833   -3.3600   -2.4110 H   0  0  0  0  0  0  0  0  0  0  0  0
   -0.2070   -2.2343   -1.8323 H   0  0  0  0  0  0  0  0  0  0  0  0
   -0.4765    0.6773    0.3856 H   0  0  0  0  0  0  0  0  0  0  0  0
   -3.4588    1.2355   -1.6218 H   0  0  0  0  0  0  0  0  0  0  0  0
   -2.7066    1.4535   -0.0115 H   0  0  0  0  0  0  0  0  0  0  0  0
   -3.8979   -1.2234   -1.0275 H   0  0  0  0  0  0  0  0  0  0  0  0
   -3.2026   -0.9160    0.5924 H   0  0  0  0  0  0  0  0  0  0  0  0
   -5.5769   -0.9435    0.7800 H   0  0  0  0  0  0  0  0  0  0  0  0
   -4.7784    2.0220    0.8973 H   0  0  0  0  0  0  0  0  0  0  0  0
   -4.3628    0.7928    2.1445 H   0  0  0  0  0  0  0  0  0  0  0  0
   -6.5229    2.3112    2.4254 H   0  0  0  0  0  0  0  0  0  0  0  0
   -6.5948    0.5783    2.8736 H   0  0  0  0  0  0  0  0  0  0  0  0
   -8.0466    0.0225    1.1473 H   0  0  0  0  0  0  0  0  0  0  0  0
   -8.4988    1.7493    1.3193 H   0  0  0  0  0  0  0  0  0  0  0  0
   -8.1543    1.1805   -1.0697 H   0  0  0  0  0  0  0  0  0  0  0  0
   -6.9082    2.3520   -0.5221 H   0  0  0  0  0  0  0  0  0  0  0  0
   -6.6267   -0.6041   -1.2320 H   0  0  0  0  0  0  0  0  0  0  0  0
   -5.6337    0.7871   -1.7262 H   0  0  0  0  0  0  0  0  0  0  0  0
    1.9986    0.9089    0.1175 H   0  0  0  0  0  0  0  0  0  0  0  0
    4.8214    0.7755   -0.8705 H   0  0  0  0  0  0  0  0  0  0  0  0
    5.7920    2.1796    0.7083 H   0  0  0  0  0  0  0  0  0  0  0  0
    7.9075    3.2033    1.4492 H   0  0  0  0  0  0  0  0  0  0  0  0
    9.6993    1.7743    2.4088 H   0  0  0  0  0  0  0  0  0  0  0  0
    7.3399   -1.6848    1.8715 H   0  0  0  0  0  0  0  0  0  0  0  0
  1  2  1  0
  2  3  1  0
  3  4  2  0
  4  5  1  0
  5  6  1  0
  6  7  1  0
  7  8  2  0
  7  9  1  0
  9 10  1  0
 10 11  1  0
 11 12  1  0
 12 13  1  0
 13 14  1  0
 14 15  1  0
 15 16  1  0
  5 17  2  0
 17 18  1  0
 18 19  1  0
 19 20  2  0
 20 21  1  0
 21 22  3  0
 20 23  1  0
 23 24  1  0
 24 25  2  0
 25 26  1  0
 26 27  2  0
 27 28  1  0
 18  2  2  0
 28 23  2  0
 16 11  1  0
  1 29  1  0
  1 30  1  0
  1 31  1  0
  3 32  1  0
  4 33  1  0
  6 34  1  0
  9 35  1  0
  9 36  1  0
 10 37  1  0
 10 38  1  0
 11 39  1  0
 12 40  1  0
 12 41  1  0
 13 42  1  0
 13 43  1  0
 14 44  1  0
 14 45  1  0
 15 46  1  0
 15 47  1  0
 16 48  1  0
 16 49  1  0
 17 50  1  0
 19 51  1  0
 24 52  1  0
 25 53  1  0
 26 54  1  0
 28 55  1  0
M  END
>  <target>  (1) 
LDLR

>  <pchembl>  (1) 
6.0

$$$$
