CHRYSOERIOL
     RDKit          3D

 34 36  0  0  0  0  0  0  0  0999 V2000
   -4.1751    2.0703    0.2551 C   0  0  0  0  0  0  0  0  0  0  0  0
   -4.5015    0.6948    0.0837 O   0  0  0  0  0  0  0  0  0  0  0  0
   -3.5598   -0.3424   -0.0130 C   0  0  0  0  0  0  0  0  0  0  0  0
   -2.1730   -0.1001    0.0550 C   0  0  0  0  0  0  0  0  0  0  0  0
   -1.2500   -1.1574   -0.0358 C   0  0  0  0  0  0  0  0  0  0  0  0
    0.2048   -0.8661    0.0293 C   0  0  0  0  0  0  0  0  0  0  0  0
    1.1285   -1.8113    0.4962 C   0  0  0  0  0  0  0  0  0  0  0  0
    2.4856   -1.4887    0.5369 C   0  0  0  0  0  0  0  0  0  0  0  0
    3.2828   -2.3344    1.0189 O   0  0  0  0  0  0  0  0  0  0  0  0
    2.9217   -0.2231    0.0774 C   0  0  0  0  0  0  0  0  0  0  0  0
    4.2839    0.2003    0.0340 C   0  0  0  0  0  0  0  0  0  0  0  0
    5.3705   -0.6339    0.3131 O   0  0  0  0  0  0  0  0  0  0  0  0
    4.5853    1.5182   -0.3315 C   0  0  0  0  0  0  0  0  0  0  0  0
    3.5785    2.4089   -0.7128 C   0  0  0  0  0  0  0  0  0  0  0  0
    3.8895    3.7137   -1.0893 O   0  0  0  0  0  0  0  0  0  0  0  0
    2.2508    1.9885   -0.7252 C   0  0  0  0  0  0  0  0  0  0  0  0
    1.9147    0.6907   -0.3329 C   0  0  0  0  0  0  0  0  0  0  0  0
    0.6346    0.3345   -0.3452 O   0  0  0  0  0  0  0  0  0  0  0  0
   -1.7318   -2.4661   -0.2182 C   0  0  0  0  0  0  0  0  0  0  0  0
   -3.1041   -2.7113   -0.2866 C   0  0  0  0  0  0  0  0  0  0  0  0
   -4.0187   -1.6604   -0.1830 C   0  0  0  0  0  0  0  0  0  0  0  0
   -5.3823   -1.9455   -0.2548 O   0  0  0  0  0  0  0  0  0  0  0  0
   -5.1121    2.6623    0.2977 H   0  0  0  0  0  0  0  0  0  0  0  0
   -3.5673    2.4284   -0.6026 H   0  0  0  0  0  0  0  0  0  0  0  0
   -3.6198    2.2155    1.2058 H   0  0  0  0  0  0  0  0  0  0  0  0
   -1.8067    0.9086    0.1908 H   0  0  0  0  0  0  0  0  0  0  0  0
    0.8024   -2.7756    0.8653 H   0  0  0  0  0  0  0  0  0  0  0  0
    5.3349   -1.6416    0.3285 H   0  0  0  0  0  0  0  0  0  0  0  0
    5.6185    1.8430   -0.3457 H   0  0  0  0  0  0  0  0  0  0  0  0
    4.8452    4.0506   -1.0936 H   0  0  0  0  0  0  0  0  0  0  0  0
    1.4730    2.6781   -1.0300 H   0  0  0  0  0  0  0  0  0  0  0  0
   -1.0540   -3.3010   -0.3336 H   0  0  0  0  0  0  0  0  0  0  0  0
   -3.4597   -3.7241   -0.4284 H   0  0  0  0  0  0  0  0  0  0  0  0
   -6.0894   -1.2234   -0.1867 H   0  0  0  0  0  0  0  0  0  0  0  0
  1  2  1  0
  2  3  1  0
  3  4  1  0
  4  5  2  0
  5  6  1  0
  6  7  2  0
  7  8  1  0
  8  9  2  0
  8 10  1  0
 10 11  2  0
 11 12  1  0
 11 13  1  0
 13 14  2  0
 14 15  1  0
 14 16  1  0
 16 17  2  0
 17 18  1  0
  5 19  1  0
 19 20  2  0
 20 21  1  0
 21 22  1  0
 21  3  2  0
 18  6  1  0
 17 10  1  0
  1 23  1  0
  1 24  1  0
  1 25  1  0
  4 26  1  0
  7 27  1  0
 12 28  1  0
 13 29  1  0
 15 30  1  0
 16 31  1  0
 19 32  1  0
 20 33  1  0
 22 34  1  0
M  END
>  <target>  (1) 
CYP1B1

>  <pchembl>  (1) 
7.7

$$$$
