KAEMPFERIDE
     RDKit          3D

 34 36  0  0  0  0  0  0  0  0999 V2000
    6.1525    1.6607    0.1841 C   0  0  0  0  0  0  0  0  0  0  0  0
    5.4848    0.5274   -0.3611 O   0  0  0  0  0  0  0  0  0  0  0  0
    4.1034    0.3017   -0.2679 C   0  0  0  0  0  0  0  0  0  0  0  0
    3.5777   -0.8559   -0.8517 C   0  0  0  0  0  0  0  0  0  0  0  0
    2.2082   -1.1279   -0.7847 C   0  0  0  0  0  0  0  0  0  0  0  0
    1.3402   -0.2467   -0.1167 C   0  0  0  0  0  0  0  0  0  0  0  0
   -0.1176   -0.4993   -0.0537 C   0  0  0  0  0  0  0  0  0  0  0  0
   -0.9396    0.5278   -0.2340 O   0  0  0  0  0  0  0  0  0  0  0  0
   -2.2625    0.4175   -0.2222 C   0  0  0  0  0  0  0  0  0  0  0  0
   -3.0302    1.5712   -0.3983 C   0  0  0  0  0  0  0  0  0  0  0  0
   -4.4211    1.5039   -0.3818 C   0  0  0  0  0  0  0  0  0  0  0  0
   -5.1674    2.6699   -0.5387 O   0  0  0  0  0  0  0  0  0  0  0  0
   -5.0542    0.2694   -0.2176 C   0  0  0  0  0  0  0  0  0  0  0  0
   -4.3118   -0.9094   -0.0752 C   0  0  0  0  0  0  0  0  0  0  0  0
   -5.0395   -2.1015   -0.0133 O   0  0  0  0  0  0  0  0  0  0  0  0
   -2.8867   -0.8426   -0.0297 C   0  0  0  0  0  0  0  0  0  0  0  0
   -2.0385   -1.9444    0.2361 C   0  0  0  0  0  0  0  0  0  0  0  0
   -2.5049   -3.0755    0.5317 O   0  0  0  0  0  0  0  0  0  0  0  0
   -0.6448   -1.7742    0.2160 C   0  0  0  0  0  0  0  0  0  0  0  0
    0.2101   -2.8434    0.4973 O   0  0  0  0  0  0  0  0  0  0  0  0
    1.8641    0.9255    0.4508 C   0  0  0  0  0  0  0  0  0  0  0  0
    3.2341    1.1962    0.3841 C   0  0  0  0  0  0  0  0  0  0  0  0
    7.2371    1.5823   -0.0345 H   0  0  0  0  0  0  0  0  0  0  0  0
    5.7630    2.5923   -0.2780 H   0  0  0  0  0  0  0  0  0  0  0  0
    6.0131    1.6927    1.2854 H   0  0  0  0  0  0  0  0  0  0  0  0
    4.2338   -1.5451   -1.3682 H   0  0  0  0  0  0  0  0  0  0  0  0
    1.8275   -2.0136   -1.2767 H   0  0  0  0  0  0  0  0  0  0  0  0
   -2.5416    2.5280   -0.5371 H   0  0  0  0  0  0  0  0  0  0  0  0
   -6.1807    2.6554   -0.5341 H   0  0  0  0  0  0  0  0  0  0  0  0
   -6.1361    0.2184   -0.2312 H   0  0  0  0  0  0  0  0  0  0  0  0
   -4.6589   -3.0173   -0.1976 H   0  0  0  0  0  0  0  0  0  0  0  0
   -0.1323   -3.7741    0.7036 H   0  0  0  0  0  0  0  0  0  0  0  0
    1.2128    1.6274    0.9575 H   0  0  0  0  0  0  0  0  0  0  0  0
    3.6059    2.1032    0.8407 H   0  0  0  0  0  0  0  0  0  0  0  0
  1  2  1  0
  2  3  1  0
  3  4  1  0
  4  5  2  0
  5  6  1  0
  6  7  1  0
  7  8  1  0
  8  9  1  0
  9 10  2  0
 10 11  1  0
 11 12  1  0
 11 13  2  0
 13 14  1  0
 14 15  1  0
 14 16  2  0
 16 17  1  0
 17 18  2  0
 17 19  1  0
 19 20  1  0
  6 21  2  0
 21 22  1  0
 22  3  2  0
 19  7  2  0
 16  9  1  0
  1 23  1  0
  1 24  1  0
  1 25  1  0
  4 26  1  0
  5 27  1  0
 10 28  1  0
 12 29  1  0
 13 30  1  0
 15 31  1  0
 20 32  1  0
 21 33  1  0
 22 34  1  0
M  END
>  <target>  (1) 
CYP1B1

>  <pchembl>  (1) 
7.6

$$$$
