CHRYSIN
     RDKit          3D

 29 31  0  0  0  0  0  0  0  0999 V2000
   -1.6378   -2.1140   -2.2099 O   0  0  0  0  0  0  0  0  0  0  0  0
   -1.1662   -1.3116   -1.3595 C   0  0  0  0  0  0  0  0  0  0  0  0
    0.2181   -1.1628   -1.2641 C   0  0  0  0  0  0  0  0  0  0  0  0
    0.7541   -0.2704   -0.3209 C   0  0  0  0  0  0  0  0  0  0  0  0
    2.2182   -0.0703   -0.1756 C   0  0  0  0  0  0  0  0  0  0  0  0
    3.1413   -1.0863   -0.4967 C   0  0  0  0  0  0  0  0  0  0  0  0
    4.5142   -0.8710   -0.3396 C   0  0  0  0  0  0  0  0  0  0  0  0
    4.9819    0.3523    0.1444 C   0  0  0  0  0  0  0  0  0  0  0  0
    4.0773    1.3619    0.4785 C   0  0  0  0  0  0  0  0  0  0  0  0
    2.7036    1.1525    0.3246 C   0  0  0  0  0  0  0  0  0  0  0  0
   -0.0675    0.4294    0.4585 O   0  0  0  0  0  0  0  0  0  0  0  0
   -1.3915    0.3228    0.4056 C   0  0  0  0  0  0  0  0  0  0  0  0
   -2.1731    1.0968    1.2682 C   0  0  0  0  0  0  0  0  0  0  0  0
   -3.5684    1.0020    1.2337 C   0  0  0  0  0  0  0  0  0  0  0  0
   -4.3528    1.7703    2.0911 O   0  0  0  0  0  0  0  0  0  0  0  0
   -4.1845    0.1301    0.3328 C   0  0  0  0  0  0  0  0  0  0  0  0
   -3.4181   -0.6545   -0.5419 C   0  0  0  0  0  0  0  0  0  0  0  0
   -4.0623   -1.5158   -1.4310 O   0  0  0  0  0  0  0  0  0  0  0  0
   -2.0064   -0.5628   -0.5115 C   0  0  0  0  0  0  0  0  0  0  0  0
    0.8573   -1.7187   -1.9377 H   0  0  0  0  0  0  0  0  0  0  0  0
    2.8096   -2.0552   -0.8443 H   0  0  0  0  0  0  0  0  0  0  0  0
    5.2160   -1.6570   -0.5869 H   0  0  0  0  0  0  0  0  0  0  0  0
    6.0449    0.5158    0.2658 H   0  0  0  0  0  0  0  0  0  0  0  0
    4.4406    2.3085    0.8575 H   0  0  0  0  0  0  0  0  0  0  0  0
    2.0209    1.9516    0.5860 H   0  0  0  0  0  0  0  0  0  0  0  0
   -1.6941    1.7721    1.9665 H   0  0  0  0  0  0  0  0  0  0  0  0
   -3.9379    2.4123    2.7564 H   0  0  0  0  0  0  0  0  0  0  0  0
   -5.2651    0.0628    0.3127 H   0  0  0  0  0  0  0  0  0  0  0  0
   -5.0724   -1.5908   -1.4629 H   0  0  0  0  0  0  0  0  0  0  0  0
  1  2  2  0
  2  3  1  0
  3  4  2  0
  4  5  1  0
  5  6  2  0
  6  7  1  0
  7  8  2  0
  8  9  1  0
  9 10  2  0
  4 11  1  0
 11 12  1  0
 12 13  2  0
 13 14  1  0
 14 15  1  0
 14 16  2  0
 16 17  1  0
 17 18  1  0
 17 19  2  0
 19  2  1  0
 10  5  1  0
 19 12  1  0
  3 20  1  0
  6 21  1  0
  7 22  1  0
  8 23  1  0
  9 24  1  0
 10 25  1  0
 13 26  1  0
 15 27  1  0
 16 28  1  0
 18 29  1  0
M  END
>  <target>  (1) 
CYP1B1

>  <pchembl>  (1) 
7.62

$$$$
