CHEMBL114890
     RDKit          3D

 59 62  0  0  0  0  0  0  0  0999 V2000
    3.3181    3.8769    1.3984 C   0  0  0  0  0  0  0  0  0  0  0  0
    2.1011    3.1113    0.9506 C   0  0  0  0  0  0  0  0  0  0  0  0
    0.8700    3.7768    0.8452 C   0  0  0  0  0  0  0  0  0  0  0  0
   -0.2735    3.0922    0.4293 C   0  0  0  0  0  0  0  0  0  0  0  0
   -0.2143    1.7275    0.1192 C   0  0  0  0  0  0  0  0  0  0  0  0
   -1.4039    1.0565   -0.3314 N   0  0  0  0  0  0  0  0  0  0  0  0
   -1.6981   -0.3259   -0.0751 C   0  0  0  0  0  0  0  0  0  0  0  0
   -1.0261   -0.9817    0.7664 O   0  0  0  0  0  0  0  0  0  0  0  0
   -2.8773   -0.9723   -0.7366 C   0  0  0  0  0  0  0  0  0  0  0  0
   -4.1411   -0.7706    0.1108 C   0  0  0  0  0  0  0  0  0  0  0  0
   -5.3828   -1.4399   -0.5182 C   0  0  0  0  0  0  0  0  0  0  0  0
   -5.7786   -0.7706   -1.8651 C   0  0  0  0  0  0  0  0  0  0  0  0
   -7.2788   -0.8915   -2.2004 C   0  0  0  0  0  0  0  0  0  0  0  0
   -7.8904   -2.1642   -1.6087 C   0  0  0  0  0  0  0  0  0  0  0  0
   -7.7852   -2.1829   -0.0707 C   0  0  0  0  0  0  0  0  0  0  0  0
   -6.5638   -1.4131    0.4725 C   0  0  0  0  0  0  0  0  0  0  0  0
    1.0217    1.0630    0.1892 C   0  0  0  0  0  0  0  0  0  0  0  0
    2.1787    1.7454    0.5928 C   0  0  0  0  0  0  0  0  0  0  0  0
    3.4542    1.0011    0.6428 C   0  0  0  0  0  0  0  0  0  0  0  0
    4.4036    1.1062   -0.3052 C   0  0  0  0  0  0  0  0  0  0  0  0
    4.2062    1.9787   -1.4444 C   0  0  0  0  0  0  0  0  0  0  0  0
    4.0476    2.6765   -2.3541 N   0  0  0  0  0  0  0  0  0  0  0  0
    5.6722    0.3372   -0.2064 C   0  0  0  0  0  0  0  0  0  0  0  0
    6.8927    0.9174   -0.6506 C   0  0  0  0  0  0  0  0  0  0  0  0
    8.1013    0.2028   -0.5691 C   0  0  0  0  0  0  0  0  0  0  0  0
    8.0608   -1.0852   -0.0484 C   0  0  0  0  0  0  0  0  0  0  0  0
    6.9039   -1.6532    0.3724 C   0  0  0  0  0  0  0  0  0  0  0  0
    5.6858   -0.9826    0.3114 C   0  0  0  0  0  0  0  0  0  0  0  0
    7.1591   -2.9306    0.8321 O   0  0  0  0  0  0  0  0  0  0  0  0
    8.5650   -3.1793    0.6927 C   0  0  0  0  0  0  0  0  0  0  0  0
    9.1025   -1.9754    0.1274 O   0  0  0  0  0  0  0  0  0  0  0  0
    3.0355    4.8270    1.9010 H   0  0  0  0  0  0  0  0  0  0  0  0
    3.9517    4.1172    0.5194 H   0  0  0  0  0  0  0  0  0  0  0  0
    3.9079    3.2758    2.1225 H   0  0  0  0  0  0  0  0  0  0  0  0
    0.7921    4.8297    1.0877 H   0  0  0  0  0  0  0  0  0  0  0  0
   -1.2134    3.6251    0.3570 H   0  0  0  0  0  0  0  0  0  0  0  0
   -2.1464    1.6305   -0.7911 H   0  0  0  0  0  0  0  0  0  0  0  0
   -3.0119   -0.5260   -1.7449 H   0  0  0  0  0  0  0  0  0  0  0  0
   -2.6785   -2.0588   -0.8660 H   0  0  0  0  0  0  0  0  0  0  0  0
   -4.3313    0.3172    0.2498 H   0  0  0  0  0  0  0  0  0  0  0  0
   -3.9605   -1.2118    1.1166 H   0  0  0  0  0  0  0  0  0  0  0  0
   -5.1374   -2.5095   -0.7127 H   0  0  0  0  0  0  0  0  0  0  0  0
   -5.1900   -1.2421   -2.6828 H   0  0  0  0  0  0  0  0  0  0  0  0
   -5.5176    0.3109   -1.8557 H   0  0  0  0  0  0  0  0  0  0  0  0
   -7.8221   -0.0091   -1.7955 H   0  0  0  0  0  0  0  0  0  0  0  0
   -7.4145   -0.8906   -3.3036 H   0  0  0  0  0  0  0  0  0  0  0  0
   -7.3607   -3.0484   -2.0289 H   0  0  0  0  0  0  0  0  0  0  0  0
   -8.9580   -2.2387   -1.9085 H   0  0  0  0  0  0  0  0  0  0  0  0
   -8.7062   -1.7399    0.3671 H   0  0  0  0  0  0  0  0  0  0  0  0
   -7.7350   -3.2413    0.2680 H   0  0  0  0  0  0  0  0  0  0  0  0
   -6.2624   -1.8623    1.4446 H   0  0  0  0  0  0  0  0  0  0  0  0
   -6.8523   -0.3553    0.6668 H   0  0  0  0  0  0  0  0  0  0  0  0
    1.0979    0.0240   -0.1057 H   0  0  0  0  0  0  0  0  0  0  0  0
    3.6013    0.3467    1.4924 H   0  0  0  0  0  0  0  0  0  0  0  0
    6.9103    1.9250   -1.0461 H   0  0  0  0  0  0  0  0  0  0  0  0
    9.0333    0.6410   -0.9005 H   0  0  0  0  0  0  0  0  0  0  0  0
    4.7812   -1.4803    0.6358 H   0  0  0  0  0  0  0  0  0  0  0  0
    9.0203   -3.3722    1.6870 H   0  0  0  0  0  0  0  0  0  0  0  0
    8.7360   -4.0347    0.0062 H   0  0  0  0  0  0  0  0  0  0  0  0
  1  2  1  0
  2  3  1  0
  3  4  2  0
  4  5  1  0
  5  6  1  0
  6  7  1  0
  7  8  2  0
  7  9  1  0
  9 10  1  0
 10 11  1  0
 11 12  1  0
 12 13  1  0
 13 14  1  0
 14 15  1  0
 15 16  1  0
  5 17  2  0
 17 18  1  0
 18 19  1  0
 19 20  2  0
 20 21  1  0
 21 22  3  0
 20 23  1  0
 23 24  1  0
 24 25  2  0
 25 26  1  0
 26 27  2  0
 27 28  1  0
 27 29  1  0
 29 30  1  0
 30 31  1  0
 18  2  2  0
 28 23  2  0
 16 11  1  0
 31 26  1  0
  1 32  1  0
  1 33  1  0
  1 34  1  0
  3 35  1  0
  4 36  1  0
  6 37  1  0
  9 38  1  0
  9 39  1  0
 10 40  1  0
 10 41  1  0
 11 42  1  0
 12 43  1  0
 12 44  1  0
 13 45  1  0
 13 46  1  0
 14 47  1  0
 14 48  1  0
 15 49  1  0
 15 50  1  0
 16 51  1  0
 16 52  1  0
 17 53  1  0
 19 54  1  0
 24 55  1  0
 25 56  1  0
 28 57  1  0
 30 58  1  0
 30 59  1  0
M  END
>  <target>  (1) 
LDLR

>  <pchembl>  (1) 
6.16

$$$$
