TAMARIXETIN
     RDKit          3D

 35 37  0  0  0  0  0  0  0  0999 V2000
    5.9410    1.3530    1.3198 C   0  0  0  0  0  0  0  0  0  0  0  0
    5.3291    0.5012    0.3566 O   0  0  0  0  0  0  0  0  0  0  0  0
    3.9431    0.3770    0.1704 C   0  0  0  0  0  0  0  0  0  0  0  0
    3.0188    1.1030    0.9455 C   0  0  0  0  0  0  0  0  0  0  0  0
    1.6462    0.9570    0.7313 C   0  0  0  0  0  0  0  0  0  0  0  0
    1.1685    0.0978   -0.2687 C   0  0  0  0  0  0  0  0  0  0  0  0
   -0.2916   -0.0564   -0.4612 C   0  0  0  0  0  0  0  0  0  0  0  0
   -1.0640   -0.1066    0.6177 O   0  0  0  0  0  0  0  0  0  0  0  0
   -2.3811   -0.2655    0.5684 C   0  0  0  0  0  0  0  0  0  0  0  0
   -3.0973   -0.2790    1.7677 C   0  0  0  0  0  0  0  0  0  0  0  0
   -4.4815   -0.4317    1.7625 C   0  0  0  0  0  0  0  0  0  0  0  0
   -5.1785   -0.4215    2.9688 O   0  0  0  0  0  0  0  0  0  0  0  0
   -5.1562   -0.6026    0.5512 C   0  0  0  0  0  0  0  0  0  0  0  0
   -4.4617   -0.6300   -0.6645 C   0  0  0  0  0  0  0  0  0  0  0  0
   -5.2173   -0.9018   -1.8089 O   0  0  0  0  0  0  0  0  0  0  0  0
   -3.0509   -0.4132   -0.6741 C   0  0  0  0  0  0  0  0  0  0  0  0
   -2.2642   -0.2928   -1.8449 C   0  0  0  0  0  0  0  0  0  0  0  0
   -2.7868   -0.2958   -2.9900 O   0  0  0  0  0  0  0  0  0  0  0  0
   -0.8746   -0.1215   -1.7386 C   0  0  0  0  0  0  0  0  0  0  0  0
   -0.0823    0.0215   -2.8810 O   0  0  0  0  0  0  0  0  0  0  0  0
    2.0893   -0.6430   -1.0287 C   0  0  0  0  0  0  0  0  0  0  0  0
    3.4656   -0.5030   -0.8177 C   0  0  0  0  0  0  0  0  0  0  0  0
    4.3449   -1.2529   -1.5988 O   0  0  0  0  0  0  0  0  0  0  0  0
    5.6668    2.4109    1.1230 H   0  0  0  0  0  0  0  0  0  0  0  0
    5.6265    1.0596    2.3436 H   0  0  0  0  0  0  0  0  0  0  0  0
    7.0431    1.2521    1.2445 H   0  0  0  0  0  0  0  0  0  0  0  0
    3.3505    1.7831    1.7181 H   0  0  0  0  0  0  0  0  0  0  0  0
    0.9547    1.5268    1.3404 H   0  0  0  0  0  0  0  0  0  0  0  0
   -2.5750   -0.1580    2.7090 H   0  0  0  0  0  0  0  0  0  0  0  0
   -6.1852   -0.5328    3.0003 H   0  0  0  0  0  0  0  0  0  0  0  0
   -6.2297   -0.7468    0.5540 H   0  0  0  0  0  0  0  0  0  0  0  0
   -4.8375   -1.2313   -2.6834 H   0  0  0  0  0  0  0  0  0  0  0  0
   -0.4668   -0.0122   -3.8175 H   0  0  0  0  0  0  0  0  0  0  0  0
    1.7439   -1.3511   -1.7713 H   0  0  0  0  0  0  0  0  0  0  0  0
    5.3501   -1.1937   -1.4888 H   0  0  0  0  0  0  0  0  0  0  0  0
  1  2  1  0
  2  3  1  0
  3  4  1  0
  4  5  2  0
  5  6  1  0
  6  7  1  0
  7  8  1  0
  8  9  1  0
  9 10  2  0
 10 11  1  0
 11 12  1  0
 11 13  2  0
 13 14  1  0
 14 15  1  0
 14 16  2  0
 16 17  1  0
 17 18  2  0
 17 19  1  0
 19 20  1  0
  6 21  2  0
 21 22  1  0
 22 23  1  0
 22  3  2  0
 19  7  2  0
 16  9  1  0
  1 24  1  0
  1 25  1  0
  1 26  1  0
  4 27  1  0
  5 28  1  0
 10 29  1  0
 12 30  1  0
 13 31  1  0
 15 32  1  0
 20 33  1  0
 21 34  1  0
 23 35  1  0
M  END
>  <target>  (1) 
CYP1B1

>  <pchembl>  (1) 
7.7

$$$$
