CHEMBL115992
     RDKit          3D

 59 62  0  0  0  0  0  0  0  0999 V2000
    3.5153   -2.5884   -0.0720 C   0  0  0  0  0  0  0  0  0  0  0  0
    2.2739   -1.7405   -0.0064 C   0  0  0  0  0  0  0  0  0  0  0  0
    1.0257   -2.3661    0.1450 C   0  0  0  0  0  0  0  0  0  0  0  0
   -0.1479   -1.6105    0.1855 C   0  0  0  0  0  0  0  0  0  0  0  0
   -0.0946   -0.2110    0.0962 C   0  0  0  0  0  0  0  0  0  0  0  0
   -1.2908    0.5875    0.1112 N   0  0  0  0  0  0  0  0  0  0  0  0
   -2.4582    0.2672    0.8858 C   0  0  0  0  0  0  0  0  0  0  0  0
   -2.4097   -0.6153    1.7849 O   0  0  0  0  0  0  0  0  0  0  0  0
   -3.7506    0.9872    0.6373 C   0  0  0  0  0  0  0  0  0  0  0  0
   -4.7003    0.1079   -0.1915 C   0  0  0  0  0  0  0  0  0  0  0  0
   -5.9874    0.8476   -0.6422 C   0  0  0  0  0  0  0  0  0  0  0  0
   -6.8569    1.3324    0.5408 C   0  0  0  0  0  0  0  0  0  0  0  0
   -7.4637    0.1663    1.3455 C   0  0  0  0  0  0  0  0  0  0  0  0
   -7.8785   -1.0341    0.4677 C   0  0  0  0  0  0  0  0  0  0  0  0
   -8.0996   -0.6340   -0.9943 C   0  0  0  0  0  0  0  0  0  0  0  0
   -6.8244   -0.0312   -1.6198 C   0  0  0  0  0  0  0  0  0  0  0  0
    1.1496    0.4168   -0.0641 C   0  0  0  0  0  0  0  0  0  0  0  0
    2.3347   -0.3316   -0.0863 C   0  0  0  0  0  0  0  0  0  0  0  0
    3.5862    0.3524   -0.2268 N   0  0  0  0  0  0  0  0  0  0  0  0
    4.4978    0.4721    0.9076 C   0  0  0  0  0  0  0  0  0  0  0  0
    5.9148    0.5887    0.4199 C   0  0  0  0  0  0  0  0  0  0  0  0
    6.4221    1.8463    0.0039 C   0  0  0  0  0  0  0  0  0  0  0  0
    7.7417    1.9640   -0.4721 C   0  0  0  0  0  0  0  0  0  0  0  0
    8.5171    0.8093   -0.5234 C   0  0  0  0  0  0  0  0  0  0  0  0
    8.0347   -0.3991   -0.1375 C   0  0  0  0  0  0  0  0  0  0  0  0
    6.7356   -0.5580    0.3363 C   0  0  0  0  0  0  0  0  0  0  0  0
    9.0173   -1.3584   -0.2923 O   0  0  0  0  0  0  0  0  0  0  0  0
   10.1911   -0.7119   -0.8037 C   0  0  0  0  0  0  0  0  0  0  0  0
    9.8271    0.6709   -0.9399 O   0  0  0  0  0  0  0  0  0  0  0  0
    3.9620   -2.6776    0.9400 H   0  0  0  0  0  0  0  0  0  0  0  0
    3.2793   -3.6084   -0.4431 H   0  0  0  0  0  0  0  0  0  0  0  0
    4.2573   -2.1458   -0.7689 H   0  0  0  0  0  0  0  0  0  0  0  0
    0.9576   -3.4453    0.2148 H   0  0  0  0  0  0  0  0  0  0  0  0
   -1.0971   -2.1268    0.2581 H   0  0  0  0  0  0  0  0  0  0  0  0
   -1.2782    1.4991   -0.3969 H   0  0  0  0  0  0  0  0  0  0  0  0
   -4.2065    1.2252    1.6222 H   0  0  0  0  0  0  0  0  0  0  0  0
   -3.5560    1.9433    0.1037 H   0  0  0  0  0  0  0  0  0  0  0  0
   -4.1524   -0.2238   -1.1023 H   0  0  0  0  0  0  0  0  0  0  0  0
   -4.9576   -0.8027    0.3904 H   0  0  0  0  0  0  0  0  0  0  0  0
   -5.6618    1.7513   -1.2049 H   0  0  0  0  0  0  0  0  0  0  0  0
   -6.2859    2.0031    1.2161 H   0  0  0  0  0  0  0  0  0  0  0  0
   -7.6874    1.9504    0.1322 H   0  0  0  0  0  0  0  0  0  0  0  0
   -8.3548    0.5439    1.8966 H   0  0  0  0  0  0  0  0  0  0  0  0
   -6.7286   -0.1768    2.1076 H   0  0  0  0  0  0  0  0  0  0  0  0
   -8.8128   -1.4807    0.8720 H   0  0  0  0  0  0  0  0  0  0  0  0
   -7.0944   -1.8211    0.5102 H   0  0  0  0  0  0  0  0  0  0  0  0
   -8.9262    0.1084   -1.0472 H   0  0  0  0  0  0  0  0  0  0  0  0
   -8.4136   -1.5251   -1.5802 H   0  0  0  0  0  0  0  0  0  0  0  0
   -6.2064   -0.8578   -2.0348 H   0  0  0  0  0  0  0  0  0  0  0  0
   -7.1342    0.5884   -2.4908 H   0  0  0  0  0  0  0  0  0  0  0  0
    1.1994    1.4958   -0.1464 H   0  0  0  0  0  0  0  0  0  0  0  0
    3.6420    1.0959   -0.9599 H   0  0  0  0  0  0  0  0  0  0  0  0
    4.3975   -0.4016    1.5870 H   0  0  0  0  0  0  0  0  0  0  0  0
    4.2260    1.3734    1.4980 H   0  0  0  0  0  0  0  0  0  0  0  0
    5.7977    2.7300    0.0538 H   0  0  0  0  0  0  0  0  0  0  0  0
    8.1413    2.9209   -0.7848 H   0  0  0  0  0  0  0  0  0  0  0  0
    6.3789   -1.5364    0.6410 H   0  0  0  0  0  0  0  0  0  0  0  0
   10.4625   -1.1376   -1.7951 H   0  0  0  0  0  0  0  0  0  0  0  0
   11.0301   -0.8182   -0.0837 H   0  0  0  0  0  0  0  0  0  0  0  0
  1  2  1  0
  2  3  1  0
  3  4  2  0
  4  5  1  0
  5  6  1  0
  6  7  1  0
  7  8  2  0
  7  9  1  0
  9 10  1  0
 10 11  1  0
 11 12  1  0
 12 13  1  0
 13 14  1  0
 14 15  1  0
 15 16  1  0
  5 17  2  0
 17 18  1  0
 18 19  1  0
 19 20  1  0
 20 21  1  0
 21 22  1  0
 22 23  2  0
 23 24  1  0
 24 25  2  0
 25 26  1  0
 25 27  1  0
 27 28  1  0
 28 29  1  0
 18  2  2  0
 26 21  2  0
 16 11  1  0
 29 24  1  0
  1 30  1  0
  1 31  1  0
  1 32  1  0
  3 33  1  0
  4 34  1  0
  6 35  1  0
  9 36  1  0
  9 37  1  0
 10 38  1  0
 10 39  1  0
 11 40  1  0
 12 41  1  0
 12 42  1  0
 13 43  1  0
 13 44  1  0
 14 45  1  0
 14 46  1  0
 15 47  1  0
 15 48  1  0
 16 49  1  0
 16 50  1  0
 17 51  1  0
 19 52  1  0
 20 53  1  0
 20 54  1  0
 22 55  1  0
 23 56  1  0
 26 57  1  0
 28 58  1  0
 28 59  1  0
M  END
>  <target>  (1) 
LDLR

>  <pchembl>  (1) 
6.22

$$$$
