ACACETIN
     RDKit          3D

 33 35  0  0  0  0  0  0  0  0999 V2000
    6.1716    0.9750   -0.8372 C   0  0  0  0  0  0  0  0  0  0  0  0
    5.4755   -0.0276   -0.1038 O   0  0  0  0  0  0  0  0  0  0  0  0
    4.0786   -0.1450   -0.0527 C   0  0  0  0  0  0  0  0  0  0  0  0
    3.5256   -1.1790    0.7092 C   0  0  0  0  0  0  0  0  0  0  0  0
    2.1396   -1.3407    0.7919 C   0  0  0  0  0  0  0  0  0  0  0  0
    1.2764   -0.4684    0.1019 C   0  0  0  0  0  0  0  0  0  0  0  0
   -0.1999   -0.6080    0.1787 C   0  0  0  0  0  0  0  0  0  0  0  0
   -0.8153   -1.8453    0.4132 C   0  0  0  0  0  0  0  0  0  0  0  0
   -2.2072   -1.9228    0.4775 C   0  0  0  0  0  0  0  0  0  0  0  0
   -2.7326   -3.0563    0.6270 O   0  0  0  0  0  0  0  0  0  0  0  0
   -2.9843   -0.7483    0.3373 C   0  0  0  0  0  0  0  0  0  0  0  0
   -4.4079   -0.7007    0.4255 C   0  0  0  0  0  0  0  0  0  0  0  0
   -5.2044   -1.7878    0.7973 O   0  0  0  0  0  0  0  0  0  0  0  0
   -5.0761    0.4998    0.1541 C   0  0  0  0  0  0  0  0  0  0  0  0
   -4.3715    1.6659   -0.1424 C   0  0  0  0  0  0  0  0  0  0  0  0
   -5.0692    2.8457   -0.3920 O   0  0  0  0  0  0  0  0  0  0  0  0
   -2.9765    1.6432   -0.1784 C   0  0  0  0  0  0  0  0  0  0  0  0
   -2.2823    0.4535    0.0537 C   0  0  0  0  0  0  0  0  0  0  0  0
   -0.9548    0.4705   -0.0040 O   0  0  0  0  0  0  0  0  0  0  0  0
    1.8347    0.5784   -0.6521 C   0  0  0  0  0  0  0  0  0  0  0  0
    3.2211    0.7376   -0.7342 C   0  0  0  0  0  0  0  0  0  0  0  0
    7.2630    0.8312   -0.7017 H   0  0  0  0  0  0  0  0  0  0  0  0
    5.8963    1.9831   -0.4615 H   0  0  0  0  0  0  0  0  0  0  0  0
    5.9334    0.8915   -1.9186 H   0  0  0  0  0  0  0  0  0  0  0  0
    4.1748   -1.8583    1.2472 H   0  0  0  0  0  0  0  0  0  0  0  0
    1.7513   -2.1338    1.4165 H   0  0  0  0  0  0  0  0  0  0  0  0
   -0.2304   -2.7517    0.5051 H   0  0  0  0  0  0  0  0  0  0  0  0
   -4.8688   -2.6146    1.2670 H   0  0  0  0  0  0  0  0  0  0  0  0
   -6.1577    0.5320    0.2027 H   0  0  0  0  0  0  0  0  0  0  0  0
   -4.5875    3.7108   -0.6079 H   0  0  0  0  0  0  0  0  0  0  0  0
   -2.4277    2.5506   -0.3994 H   0  0  0  0  0  0  0  0  0  0  0  0
    1.1977    1.2697   -1.1902 H   0  0  0  0  0  0  0  0  0  0  0  0
    3.6149    1.5498   -1.3298 H   0  0  0  0  0  0  0  0  0  0  0  0
  1  2  1  0
  2  3  1  0
  3  4  1  0
  4  5  2  0
  5  6  1  0
  6  7  1  0
  7  8  2  0
  8  9  1  0
  9 10  2  0
  9 11  1  0
 11 12  2  0
 12 13  1  0
 12 14  1  0
 14 15  2  0
 15 16  1  0
 15 17  1  0
 17 18  2  0
 18 19  1  0
  6 20  2  0
 20 21  1  0
 21  3  2  0
 19  7  1  0
 18 11  1  0
  1 22  1  0
  1 23  1  0
  1 24  1  0
  4 25  1  0
  5 26  1  0
  8 27  1  0
 13 28  1  0
 14 29  1  0
 16 30  1  0
 17 31  1  0
 20 32  1  0
 21 33  1  0
M  END
>  <target>  (1) 
CYP1B1

>  <pchembl>  (1) 
7.92

$$$$
