CHEMBL46909
     RDKit          3D

 42 43  0  0  0  0  0  0  0  0999 V2000
   -3.8911    3.5812    1.2505 C   0  0  0  0  0  0  0  0  0  0  0  0
   -4.5338    2.3785    0.8404 O   0  0  0  0  0  0  0  0  0  0  0  0
   -3.8621    1.1898    0.5165 C   0  0  0  0  0  0  0  0  0  0  0  0
   -2.4606    1.0771    0.5701 C   0  0  0  0  0  0  0  0  0  0  0  0
   -1.8236   -0.1263    0.2279 C   0  0  0  0  0  0  0  0  0  0  0  0
   -0.3432   -0.1908    0.3091 C   0  0  0  0  0  0  0  0  0  0  0  0
    0.4042   -1.0825   -0.3580 C   0  0  0  0  0  0  0  0  0  0  0  0
    1.8799   -1.1261   -0.2479 C   0  0  0  0  0  0  0  0  0  0  0  0
    2.4976   -2.3812   -0.1520 C   0  0  0  0  0  0  0  0  0  0  0  0
    3.8841   -2.4847   -0.0405 C   0  0  0  0  0  0  0  0  0  0  0  0
    4.6838   -1.3403   -0.0368 C   0  0  0  0  0  0  0  0  0  0  0  0
    6.0723   -1.5011    0.0861 O   0  0  0  0  0  0  0  0  0  0  0  0
    7.0096   -0.4293    0.1042 C   0  0  0  0  0  0  0  0  0  0  0  0
    4.0770   -0.0767   -0.1612 C   0  0  0  0  0  0  0  0  0  0  0  0
    2.6770    0.0409   -0.2841 C   0  0  0  0  0  0  0  0  0  0  0  0
    2.0589    1.2893   -0.4708 O   0  0  0  0  0  0  0  0  0  0  0  0
    2.7441    2.5363   -0.5239 C   0  0  0  0  0  0  0  0  0  0  0  0
   -2.6106   -1.2330   -0.1447 C   0  0  0  0  0  0  0  0  0  0  0  0
   -4.0050   -1.1350   -0.2000 C   0  0  0  0  0  0  0  0  0  0  0  0
   -4.7362   -2.2705   -0.5806 O   0  0  0  0  0  0  0  0  0  0  0  0
   -6.1559   -2.3183   -0.6790 C   0  0  0  0  0  0  0  0  0  0  0  0
   -4.6245    0.0842    0.1281 C   0  0  0  0  0  0  0  0  0  0  0  0
   -3.3207    3.4090    2.1876 H   0  0  0  0  0  0  0  0  0  0  0  0
   -4.6610    4.3567    1.4410 H   0  0  0  0  0  0  0  0  0  0  0  0
   -3.2122    3.9436    0.4499 H   0  0  0  0  0  0  0  0  0  0  0  0
   -1.8582    1.9256    0.8677 H   0  0  0  0  0  0  0  0  0  0  0  0
    0.1494    0.5427    0.9358 H   0  0  0  0  0  0  0  0  0  0  0  0
   -0.0643   -1.8436   -0.9664 H   0  0  0  0  0  0  0  0  0  0  0  0
    1.9009   -3.2856   -0.1460 H   0  0  0  0  0  0  0  0  0  0  0  0
    4.3409   -3.4625    0.0464 H   0  0  0  0  0  0  0  0  0  0  0  0
    8.0324   -0.8441    0.2150 H   0  0  0  0  0  0  0  0  0  0  0  0
    6.8040    0.2435    0.9635 H   0  0  0  0  0  0  0  0  0  0  0  0
    6.9582    0.1393   -0.8483 H   0  0  0  0  0  0  0  0  0  0  0  0
    4.6930    0.8097   -0.1758 H   0  0  0  0  0  0  0  0  0  0  0  0
    2.0044    3.3491   -0.6736 H   0  0  0  0  0  0  0  0  0  0  0  0
    3.4575    2.5445   -1.3749 H   0  0  0  0  0  0  0  0  0  0  0  0
    3.2820    2.7175    0.4305 H   0  0  0  0  0  0  0  0  0  0  0  0
   -2.1583   -2.1884   -0.3709 H   0  0  0  0  0  0  0  0  0  0  0  0
   -6.4630   -3.3349   -0.9993 H   0  0  0  0  0  0  0  0  0  0  0  0
   -6.6147   -2.1032    0.3092 H   0  0  0  0  0  0  0  0  0  0  0  0
   -6.5113   -1.5853   -1.4337 H   0  0  0  0  0  0  0  0  0  0  0  0
   -5.7008    0.1847    0.0916 H   0  0  0  0  0  0  0  0  0  0  0  0
  1  2  1  0
  2  3  1  0
  3  4  1  0
  4  5  2  0
  5  6  1  0
  6  7  2  0
  7  8  1  0
  8  9  1  0
  9 10  2  0
 10 11  1  0
 11 12  1  0
 12 13  1  0
 11 14  2  0
 14 15  1  0
 15 16  1  0
 16 17  1  0
  5 18  1  0
 18 19  2  0
 19 20  1  0
 20 21  1  0
 19 22  1  0
 22  3  2  0
 15  8  2  0
  1 23  1  0
  1 24  1  0
  1 25  1  0
  4 26  1  0
  6 27  1  0
  7 28  1  0
  9 29  1  0
 10 30  1  0
 13 31  1  0
 13 32  1  0
 13 33  1  0
 14 34  1  0
 17 35  1  0
 17 36  1  0
 17 37  1  0
 18 38  1  0
 21 39  1  0
 21 40  1  0
 21 41  1  0
 22 42  1  0
M  END
>  <target>  (1) 
CYP1B1

>  <pchembl>  (1) 
8.7

$$$$
