CHEMBL3132932
     RDKit          3D

 42 43  0  0  0  0  0  0  0  0999 V2000
    6.4621   -0.7568    0.8414 C   0  0  0  0  0  0  0  0  0  0  0  0
    5.3315   -0.4844    1.6631 O   0  0  0  0  0  0  0  0  0  0  0  0
    4.0252   -0.3050    1.1831 C   0  0  0  0  0  0  0  0  0  0  0  0
    3.0123   -0.0423    2.1068 C   0  0  0  0  0  0  0  0  0  0  0  0
    1.6957    0.1440    1.6848 C   0  0  0  0  0  0  0  0  0  0  0  0
    1.3625    0.0612    0.3198 C   0  0  0  0  0  0  0  0  0  0  0  0
   -0.0300    0.2745   -0.1479 C   0  0  0  0  0  0  0  0  0  0  0  0
   -1.1090   -0.0257    0.5888 C   0  0  0  0  0  0  0  0  0  0  0  0
   -2.4905    0.1975    0.1002 C   0  0  0  0  0  0  0  0  0  0  0  0
   -3.4330    0.7805    0.9734 C   0  0  0  0  0  0  0  0  0  0  0  0
   -3.0253    1.1426    2.2691 O   0  0  0  0  0  0  0  0  0  0  0  0
   -3.8706    1.7408    3.2464 C   0  0  0  0  0  0  0  0  0  0  0  0
   -4.7496    0.9974    0.5270 C   0  0  0  0  0  0  0  0  0  0  0  0
   -5.1256    0.6349   -0.7647 C   0  0  0  0  0  0  0  0  0  0  0  0
   -4.2048    0.0382   -1.6234 C   0  0  0  0  0  0  0  0  0  0  0  0
   -2.8843   -0.2016   -1.1993 C   0  0  0  0  0  0  0  0  0  0  0  0
   -1.9558   -0.8533   -2.0291 O   0  0  0  0  0  0  0  0  0  0  0  0
   -2.2217   -1.2937   -3.3567 C   0  0  0  0  0  0  0  0  0  0  0  0
    2.3793   -0.1921   -0.6247 C   0  0  0  0  0  0  0  0  0  0  0  0
    2.0374   -0.2653   -1.9866 O   0  0  0  0  0  0  0  0  0  0  0  0
    2.9574   -0.5229   -3.0424 C   0  0  0  0  0  0  0  0  0  0  0  0
    3.7061   -0.3767   -0.1850 C   0  0  0  0  0  0  0  0  0  0  0  0
    7.3618   -0.8521    1.4830 H   0  0  0  0  0  0  0  0  0  0  0  0
    6.6233    0.0763    0.1250 H   0  0  0  0  0  0  0  0  0  0  0  0
    6.3144   -1.7108    0.2925 H   0  0  0  0  0  0  0  0  0  0  0  0
    3.2491    0.0263    3.1611 H   0  0  0  0  0  0  0  0  0  0  0  0
    0.9477    0.3790    2.4299 H   0  0  0  0  0  0  0  0  0  0  0  0
   -0.1701    0.6736   -1.1450 H   0  0  0  0  0  0  0  0  0  0  0  0
   -0.9917   -0.4064    1.5948 H   0  0  0  0  0  0  0  0  0  0  0  0
   -4.2492    2.7174    2.8775 H   0  0  0  0  0  0  0  0  0  0  0  0
   -4.7194    1.0648    3.4825 H   0  0  0  0  0  0  0  0  0  0  0  0
   -3.2864    1.9140    4.1732 H   0  0  0  0  0  0  0  0  0  0  0  0
   -5.4912    1.4498    1.1708 H   0  0  0  0  0  0  0  0  0  0  0  0
   -6.1403    0.8090   -1.0994 H   0  0  0  0  0  0  0  0  0  0  0  0
   -4.5349   -0.2460   -2.6130 H   0  0  0  0  0  0  0  0  0  0  0  0
   -1.3062   -1.7625   -3.7720 H   0  0  0  0  0  0  0  0  0  0  0  0
   -3.0368   -2.0477   -3.3531 H   0  0  0  0  0  0  0  0  0  0  0  0
   -2.5000   -0.4301   -3.9969 H   0  0  0  0  0  0  0  0  0  0  0  0
    2.4099   -0.5235   -4.0070 H   0  0  0  0  0  0  0  0  0  0  0  0
    3.7335    0.2707   -3.0750 H   0  0  0  0  0  0  0  0  0  0  0  0
    3.4308   -1.5176   -2.9024 H   0  0  0  0  0  0  0  0  0  0  0  0
    4.4864   -0.5761   -0.9039 H   0  0  0  0  0  0  0  0  0  0  0  0
  1  2  1  0
  2  3  1  0
  3  4  1  0
  4  5  2  0
  5  6  1  0
  6  7  1  0
  7  8  2  0
  8  9  1  0
  9 10  2  0
 10 11  1  0
 11 12  1  0
 10 13  1  0
 13 14  2  0
 14 15  1  0
 15 16  2  0
 16 17  1  0
 17 18  1  0
  6 19  2  0
 19 20  1  0
 20 21  1  0
 19 22  1  0
 22  3  2  0
 16  9  1  0
  1 23  1  0
  1 24  1  0
  1 25  1  0
  4 26  1  0
  5 27  1  0
  7 28  1  0
  8 29  1  0
 12 30  1  0
 12 31  1  0
 12 32  1  0
 13 33  1  0
 14 34  1  0
 15 35  1  0
 18 36  1  0
 18 37  1  0
 18 38  1  0
 21 39  1  0
 21 40  1  0
 21 41  1  0
 22 42  1  0
M  END
>  <target>  (1) 
CYP1B1

>  <pchembl>  (1) 
8.75

$$$$
