CANNABIDIOL
     RDKit          3D

 53 54  0  0  0  0  0  0  0  0999 V2000
   -2.6092    2.8383   -0.1555 C   0  0  0  0  0  0  0  0  0  0  0  0
   -3.1296    1.6986    0.3269 C   0  0  0  0  0  0  0  0  0  0  0  0
   -3.7454    1.7081    1.7032 C   0  0  0  0  0  0  0  0  0  0  0  0
   -3.0406    0.4084   -0.4807 C   0  0  2  0  0  0  0  0  0  0  0  0
   -4.4531   -0.2250   -0.7003 C   0  0  0  0  0  0  0  0  0  0  0  0
   -4.5967   -1.6366   -0.1097 C   0  0  0  0  0  0  0  0  0  0  0  0
   -3.4115   -2.4881   -0.4975 C   0  0  0  0  0  0  0  0  0  0  0  0
   -3.5962   -3.8750   -1.0476 C   0  0  0  0  0  0  0  0  0  0  0  0
   -2.1781   -1.9724   -0.3686 C   0  0  0  0  0  0  0  0  0  0  0  0
   -2.0075   -0.5672    0.1646 C   0  0  1  0  0  0  0  0  0  0  0  0
   -0.5776   -0.0636   -0.0170 C   0  0  0  0  0  0  0  0  0  0  0  0
    0.0456   -0.0779   -1.2880 C   0  0  0  0  0  0  0  0  0  0  0  0
   -0.6271   -0.5849   -2.4005 O   0  0  0  0  0  0  0  0  0  0  0  0
    1.3465    0.4183   -1.4405 C   0  0  0  0  0  0  0  0  0  0  0  0
    2.0434    0.9456   -0.3471 C   0  0  0  0  0  0  0  0  0  0  0  0
    3.4536    1.4516   -0.5207 C   0  0  0  0  0  0  0  0  0  0  0  0
    4.4701    0.3048   -0.6552 C   0  0  0  0  0  0  0  0  0  0  0  0
    4.5598   -0.6160    0.5783 C   0  0  0  0  0  0  0  0  0  0  0  0
    5.0458    0.0735    1.8655 C   0  0  0  0  0  0  0  0  0  0  0  0
    6.4706    0.6142    1.7526 C   0  0  0  0  0  0  0  0  0  0  0  0
    1.4272    0.9742    0.9097 C   0  0  0  0  0  0  0  0  0  0  0  0
    0.1270    0.4815    1.0805 C   0  0  0  0  0  0  0  0  0  0  0  0
   -0.4643    0.5382    2.3430 O   0  0  0  0  0  0  0  0  0  0  0  0
   -2.1305    2.8714   -1.1294 H   0  0  0  0  0  0  0  0  0  0  0  0
   -2.6500    3.7560    0.4238 H   0  0  0  0  0  0  0  0  0  0  0  0
   -4.1101    0.7006    1.9902 H   0  0  0  0  0  0  0  0  0  0  0  0
   -2.9914    2.0323    2.4513 H   0  0  0  0  0  0  0  0  0  0  0  0
   -4.6056    2.4101    1.7244 H   0  0  0  0  0  0  0  0  0  0  0  0
   -2.6706    0.6574   -1.5005 H   0  0  0  0  0  0  0  0  0  0  0  0
   -4.6489   -0.2941   -1.7939 H   0  0  0  0  0  0  0  0  0  0  0  0
   -5.2604    0.4184   -0.2870 H   0  0  0  0  0  0  0  0  0  0  0  0
   -4.6443   -1.5691    0.9985 H   0  0  0  0  0  0  0  0  0  0  0  0
   -5.5483   -2.0887   -0.4627 H   0  0  0  0  0  0  0  0  0  0  0  0
   -3.0675   -4.6077   -0.4020 H   0  0  0  0  0  0  0  0  0  0  0  0
   -3.1807   -3.9287   -2.0760 H   0  0  0  0  0  0  0  0  0  0  0  0
   -4.6701   -4.1530   -1.0859 H   0  0  0  0  0  0  0  0  0  0  0  0
   -1.3087   -2.5667   -0.6400 H   0  0  0  0  0  0  0  0  0  0  0  0
   -2.2416   -0.6487    1.2474 H   0  0  0  0  0  0  0  0  0  0  0  0
   -0.2002   -0.6043   -3.3192 H   0  0  0  0  0  0  0  0  0  0  0  0
    1.8165    0.3938   -2.4163 H   0  0  0  0  0  0  0  0  0  0  0  0
    3.7411    2.1266    0.3129 H   0  0  0  0  0  0  0  0  0  0  0  0
    3.4985    2.0700   -1.4435 H   0  0  0  0  0  0  0  0  0  0  0  0
    5.4700    0.7310   -0.8807 H   0  0  0  0  0  0  0  0  0  0  0  0
    4.1929   -0.3170   -1.5342 H   0  0  0  0  0  0  0  0  0  0  0  0
    3.5652   -1.0723    0.7709 H   0  0  0  0  0  0  0  0  0  0  0  0
    5.2507   -1.4541    0.3406 H   0  0  0  0  0  0  0  0  0  0  0  0
    4.3583    0.8929    2.1586 H   0  0  0  0  0  0  0  0  0  0  0  0
    5.0239   -0.6759    2.6860 H   0  0  0  0  0  0  0  0  0  0  0  0
    6.8175    0.9506    2.7523 H   0  0  0  0  0  0  0  0  0  0  0  0
    7.1598   -0.1763    1.3867 H   0  0  0  0  0  0  0  0  0  0  0  0
    6.5054    1.4857    1.0666 H   0  0  0  0  0  0  0  0  0  0  0  0
    1.9561    1.3827    1.7614 H   0  0  0  0  0  0  0  0  0  0  0  0
    0.0206    0.9289    3.1424 H   0  0  0  0  0  0  0  0  0  0  0  0
  1  2  2  0
  2  3  1  0
  2  4  1  0
  4  5  1  0
  5  6  1  0
  6  7  1  0
  7  8  1  0
  7  9  2  0
  9 10  1  0
 10 11  1  0
 11 12  1  0
 12 13  1  0
 12 14  2  0
 14 15  1  0
 15 16  1  0
 16 17  1  0
 17 18  1  0
 18 19  1  0
 19 20  1  0
 15 21  2  0
 21 22  1  0
 22 23  1  0
 10  4  1  0
 22 11  2  0
  1 24  1  0
  1 25  1  0
  3 26  1  0
  3 27  1  0
  3 28  1  0
  4 29  1  6
  5 30  1  0
  5 31  1  0
  6 32  1  0
  6 33  1  0
  8 34  1  0
  8 35  1  0
  8 36  1  0
  9 37  1  0
 10 38  1  1
 13 39  1  0
 14 40  1  0
 16 41  1  0
 16 42  1  0
 17 43  1  0
 17 44  1  0
 18 45  1  0
 18 46  1  0
 19 47  1  0
 19 48  1  0
 20 49  1  0
 20 50  1  0
 20 51  1  0
 21 52  1  0
 23 53  1  0
M  END
>  <target>  (1) 
GABRB2

>  <pchembl>  (1) 
6.89

$$$$
