CHEMBL324616
     RDKit          3D

 55 58  0  0  0  0  0  0  0  0999 V2000
    4.6362    3.2993    0.5827 C   0  0  0  0  0  0  0  0  0  0  0  0
    3.2550    2.7173    0.7375 C   0  0  0  0  0  0  0  0  0  0  0  0
    2.2421    3.5241    1.2816 C   0  0  0  0  0  0  0  0  0  0  0  0
    0.9400    3.0426    1.4153 C   0  0  0  0  0  0  0  0  0  0  0  0
    0.6189    1.7427    0.9999 C   0  0  0  0  0  0  0  0  0  0  0  0
   -0.7098    1.2144    1.1522 N   0  0  0  0  0  0  0  0  0  0  0  0
   -1.9078    1.9930    1.0035 C   0  0  0  0  0  0  0  0  0  0  0  0
   -1.8651    3.1493    0.5019 O   0  0  0  0  0  0  0  0  0  0  0  0
   -3.2359    1.3934    1.3544 C   0  0  0  0  0  0  0  0  0  0  0  0
   -3.7932    0.5951    0.1663 C   0  0  0  0  0  0  0  0  0  0  0  0
   -5.1488   -0.0761    0.4896 C   0  0  0  0  0  0  0  0  0  0  0  0
   -4.9756   -1.3456    1.3761 C   0  0  0  0  0  0  0  0  0  0  0  0
   -5.0165   -2.6395    0.5546 C   0  0  0  0  0  0  0  0  0  0  0  0
   -6.3581   -2.7986   -0.1871 C   0  0  0  0  0  0  0  0  0  0  0  0
   -6.9841   -1.4556   -0.6149 C   0  0  0  0  0  0  0  0  0  0  0  0
   -5.9172   -0.3766   -0.8240 C   0  0  0  0  0  0  0  0  0  0  0  0
    1.6310    0.9184    0.4913 C   0  0  0  0  0  0  0  0  0  0  0  0
    2.9512    1.3847    0.3557 C   0  0  0  0  0  0  0  0  0  0  0  0
    3.9802    0.4559   -0.1740 C   0  0  0  0  0  0  0  0  0  0  0  0
    5.2696    0.4403    0.2621 N   0  0  0  0  0  0  0  0  0  0  0  0
    5.8196   -0.5543   -0.4560 C   0  0  0  0  0  0  0  0  0  0  0  0
    7.1366   -1.0055   -0.4187 C   0  0  0  0  0  0  0  0  0  0  0  0
    7.4906   -2.0723   -1.2738 C   0  0  0  0  0  0  0  0  0  0  0  0
    8.7916   -2.5697   -1.2805 O   0  0  0  0  0  0  0  0  0  0  0  0
    6.5227   -2.6443   -2.1334 C   0  0  0  0  0  0  0  0  0  0  0  0
    5.2001   -2.1617   -2.1433 C   0  0  0  0  0  0  0  0  0  0  0  0
    4.8926   -1.1107   -1.2829 C   0  0  0  0  0  0  0  0  0  0  0  0
    3.7204   -0.4875   -1.1161 N   0  0  0  0  0  0  0  0  0  0  0  0
    5.3042    2.8936    1.3710 H   0  0  0  0  0  0  0  0  0  0  0  0
    4.6232    4.4063    0.6737 H   0  0  0  0  0  0  0  0  0  0  0  0
    5.0463    3.0563   -0.4202 H   0  0  0  0  0  0  0  0  0  0  0  0
    2.4594    4.5346    1.6055 H   0  0  0  0  0  0  0  0  0  0  0  0
    0.1919    3.6808    1.8664 H   0  0  0  0  0  0  0  0  0  0  0  0
   -0.8162    0.1841    1.2935 H   0  0  0  0  0  0  0  0  0  0  0  0
   -3.1103    0.7426    2.2444 H   0  0  0  0  0  0  0  0  0  0  0  0
   -3.9459    2.2053    1.6265 H   0  0  0  0  0  0  0  0  0  0  0  0
   -3.0596   -0.1797   -0.1517 H   0  0  0  0  0  0  0  0  0  0  0  0
   -3.9246    1.3015   -0.6848 H   0  0  0  0  0  0  0  0  0  0  0  0
   -5.7664    0.6514    1.0646 H   0  0  0  0  0  0  0  0  0  0  0  0
   -5.7974   -1.3808    2.1249 H   0  0  0  0  0  0  0  0  0  0  0  0
   -4.0259   -1.3190    1.9495 H   0  0  0  0  0  0  0  0  0  0  0  0
   -4.8581   -3.5122    1.2246 H   0  0  0  0  0  0  0  0  0  0  0  0
   -4.1829   -2.6264   -0.1818 H   0  0  0  0  0  0  0  0  0  0  0  0
   -6.1929   -3.4325   -1.0858 H   0  0  0  0  0  0  0  0  0  0  0  0
   -7.0792   -3.3352    0.4675 H   0  0  0  0  0  0  0  0  0  0  0  0
   -7.6968   -1.1109    0.1669 H   0  0  0  0  0  0  0  0  0  0  0  0
   -7.5604   -1.5968   -1.5553 H   0  0  0  0  0  0  0  0  0  0  0  0
   -5.2159   -0.7227   -1.6166 H   0  0  0  0  0  0  0  0  0  0  0  0
   -6.4028    0.5544   -1.1903 H   0  0  0  0  0  0  0  0  0  0  0  0
    1.3841   -0.0994    0.2136 H   0  0  0  0  0  0  0  0  0  0  0  0
    7.8606   -0.5529    0.2465 H   0  0  0  0  0  0  0  0  0  0  0  0
    9.5075   -2.1845   -0.6760 H   0  0  0  0  0  0  0  0  0  0  0  0
    6.7976   -3.4615   -2.7880 H   0  0  0  0  0  0  0  0  0  0  0  0
    4.4513   -2.5925   -2.7950 H   0  0  0  0  0  0  0  0  0  0  0  0
    2.8231   -0.6764   -1.6158 H   0  0  0  0  0  0  0  0  0  0  0  0
  1  2  1  0
  2  3  1  0
  3  4  2  0
  4  5  1  0
  5  6  1  0
  6  7  1  0
  7  8  2  0
  7  9  1  0
  9 10  1  0
 10 11  1  0
 11 12  1  0
 12 13  1  0
 13 14  1  0
 14 15  1  0
 15 16  1  0
  5 17  2  0
 17 18  1  0
 18 19  1  0
 19 20  2  0
 20 21  1  0
 21 22  2  0
 22 23  1  0
 23 24  1  0
 23 25  2  0
 25 26  1  0
 26 27  2  0
 27 28  1  0
 18  2  2  0
 28 19  1  0
 16 11  1  0
 27 21  1  0
  1 29  1  0
  1 30  1  0
  1 31  1  0
  3 32  1  0
  4 33  1  0
  6 34  1  0
  9 35  1  0
  9 36  1  0
 10 37  1  0
 10 38  1  0
 11 39  1  0
 12 40  1  0
 12 41  1  0
 13 42  1  0
 13 43  1  0
 14 44  1  0
 14 45  1  0
 15 46  1  0
 15 47  1  0
 16 48  1  0
 16 49  1  0
 17 50  1  0
 22 51  1  0
 24 52  1  0
 25 53  1  0
 26 54  1  0
 28 55  1  0
M  END
>  <target>  (1) 
LDLR

>  <pchembl>  (1) 
6.16

$$$$
