ISORHAMNETIN
     RDKit          3D

 35 37  0  0  0  0  0  0  0  0999 V2000
   -4.9225   -0.9485    1.2403 C   0  0  0  0  0  0  0  0  0  0  0  0
   -4.7967    0.3614    0.6961 O   0  0  0  0  0  0  0  0  0  0  0  0
   -3.6032    0.9015    0.1915 C   0  0  0  0  0  0  0  0  0  0  0  0
   -2.3933    0.1788    0.1895 C   0  0  0  0  0  0  0  0  0  0  0  0
   -1.2193    0.7493   -0.3345 C   0  0  0  0  0  0  0  0  0  0  0  0
    0.0654    0.0131   -0.3259 C   0  0  0  0  0  0  0  0  0  0  0  0
    1.1642    0.6737    0.0275 O   0  0  0  0  0  0  0  0  0  0  0  0
    2.3672    0.1137    0.0807 C   0  0  0  0  0  0  0  0  0  0  0  0
    3.4627    0.8901    0.4695 C   0  0  0  0  0  0  0  0  0  0  0  0
    4.7401    0.3248    0.5394 C   0  0  0  0  0  0  0  0  0  0  0  0
    5.8357    1.0933    0.9268 O   0  0  0  0  0  0  0  0  0  0  0  0
    4.9228   -1.0222    0.2191 C   0  0  0  0  0  0  0  0  0  0  0  0
    3.8367   -1.8179   -0.1749 C   0  0  0  0  0  0  0  0  0  0  0  0
    4.0524   -3.1603   -0.4895 O   0  0  0  0  0  0  0  0  0  0  0  0
    2.5413   -1.2512   -0.2482 C   0  0  0  0  0  0  0  0  0  0  0  0
    1.4015   -1.9811   -0.6436 C   0  0  0  0  0  0  0  0  0  0  0  0
    1.4896   -3.1988   -0.9602 O   0  0  0  0  0  0  0  0  0  0  0  0
    0.1522   -1.3435   -0.6939 C   0  0  0  0  0  0  0  0  0  0  0  0
   -0.9838   -2.0308   -1.1293 O   0  0  0  0  0  0  0  0  0  0  0  0
   -1.2566    2.0637   -0.8227 C   0  0  0  0  0  0  0  0  0  0  0  0
   -2.4524    2.7839   -0.8229 C   0  0  0  0  0  0  0  0  0  0  0  0
   -3.6253    2.2059   -0.3214 C   0  0  0  0  0  0  0  0  0  0  0  0
   -4.8196    2.9248   -0.3251 O   0  0  0  0  0  0  0  0  0  0  0  0
   -5.9746   -1.1122    1.5511 H   0  0  0  0  0  0  0  0  0  0  0  0
   -4.2682   -1.0563    2.1311 H   0  0  0  0  0  0  0  0  0  0  0  0
   -4.6556   -1.7075    0.4748 H   0  0  0  0  0  0  0  0  0  0  0  0
   -2.3557   -0.8137    0.6163 H   0  0  0  0  0  0  0  0  0  0  0  0
    3.3193    1.9344    0.7188 H   0  0  0  0  0  0  0  0  0  0  0  0
    5.7376    2.0731    1.1659 H   0  0  0  0  0  0  0  0  0  0  0  0
    5.9150   -1.4523    0.2762 H   0  0  0  0  0  0  0  0  0  0  0  0
    4.9746   -3.5776   -0.4410 H   0  0  0  0  0  0  0  0  0  0  0  0
   -0.9551   -3.0038   -1.4094 H   0  0  0  0  0  0  0  0  0  0  0  0
   -0.3609    2.5288   -1.2163 H   0  0  0  0  0  0  0  0  0  0  0  0
   -2.4667    3.7935   -1.2134 H   0  0  0  0  0  0  0  0  0  0  0  0
   -4.8688    3.8699   -0.6874 H   0  0  0  0  0  0  0  0  0  0  0  0
  1  2  1  0
  2  3  1  0
  3  4  1  0
  4  5  2  0
  5  6  1  0
  6  7  1  0
  7  8  1  0
  8  9  2  0
  9 10  1  0
 10 11  1  0
 10 12  2  0
 12 13  1  0
 13 14  1  0
 13 15  2  0
 15 16  1  0
 16 17  2  0
 16 18  1  0
 18 19  1  0
  5 20  1  0
 20 21  2  0
 21 22  1  0
 22 23  1  0
 22  3  2  0
 18  6  2  0
 15  8  1  0
  1 24  1  0
  1 25  1  0
  1 26  1  0
  4 27  1  0
  9 28  1  0
 11 29  1  0
 12 30  1  0
 14 31  1  0
 19 32  1  0
 20 33  1  0
 21 34  1  0
 23 35  1  0
M  END
>  <target>  (1) 
CYP1B1

>  <pchembl>  (1) 
7.77

$$$$
