BHF
  thyrai-chem-showcase

 21  0  0  0  0  0  0  0  0  0999 V2000
  -17.5010   19.5090  -20.5740 C  0  0  0  0  0  0  0  0  0  0  0  0
  -16.5560   20.4060  -21.0680 C  0  0  0  0  0  0  0  0  0  0  0  0
  -15.6020   19.9900  -21.7270 O  0  0  0  0  0  0  0  0  0  0  0  0
  -16.7040   21.7720  -20.8460 C  0  0  0  0  0  0  0  0  0  0  0  0
  -15.7460   22.6830  -21.2860 C  0  0  0  0  0  0  0  0  0  0  0  0
  -15.8940   24.0350  -20.9890 C  0  0  0  0  0  0  0  0  0  0  0  0
  -16.9940   24.4760  -20.2580 C  0  0  0  0  0  0  0  0  0  0  0  0
  -17.1580   25.8320  -19.9880 C  0  0  0  0  0  0  0  0  0  0  0  0
  -18.2760   26.2690  -19.2840 C  0  0  0  0  0  0  0  0  0  0  0  0
  -19.2340   25.3590  -18.8480 C  0  0  0  0  0  0  0  0  0  0  0  0
  -19.0720   24.0020  -19.1150 C  0  0  0  0  0  0  0  0  0  0  0  0
  -17.9530   23.5650  -19.8190 C  0  0  0  0  0  0  0  0  0  0  0  0
  -17.8030   22.2160  -20.1170 C  0  0  0  0  0  0  0  0  0  0  0  0
  -18.8000   21.3400  -19.8140 O  0  0  0  0  0  0  0  0  0  0  0  0
  -18.6030   19.9930  -19.8770 C  0  0  0  0  0  0  0  0  0  0  0  0
  -19.5760   19.1590  -19.3330 C  0  0  0  0  0  0  0  0  0  0  0  0
  -19.5400   17.7800  -19.5210 C  0  0  0  0  0  0  0  0  0  0  0  0
  -20.5180   16.9720  -18.9510 C  0  0  0  0  0  0  0  0  0  0  0  0
  -21.5360   17.5380  -18.1880 C  0  0  0  0  0  0  0  0  0  0  0  0
  -21.5740   18.9170  -18.0020 C  0  0  0  0  0  0  0  0  0  0  0  0
  -20.5960   19.7250  -18.5750 C  0  0  0  0  0  0  0  0  0  0  0  0
M  END
$$$$
